resultados/_temp_alt7_1p20/LineSummary.csv
line,maxCurrentA,normAmps,maxLoadingPct,meanLoadingPct,overloadHours
rbt_1607347,93.17629680197608,124.95,74.57086578789603,25.74142489455419,0
sbt_7584,93.17630689330635,163.8,56.88419224255576,19.636088525710715,0
sbt_22840,93.17630227193492,163.8,56.884189421205676,19.63608845030034,0
rbt_630758,30.824699494144284,76.65,40.214872138479166,17.808564167740453,0
rbt_637576,24.65991138182094,61.95,39.80615235160765,14.762234415121583,0
rbt_632607,49.006547893757535,124.95,39.220926685680304,18.46203223416347,0
rbt_1130761,30.42891359767155,90.3,33.69757873496296,15.859647328724996,0
rbt_606147,25.28708714471842,76.65,32.99032895592748,12.484463900471347,0
rbt_605836,25.8298309645122,90.3,28.60446396955947,13.472406496964815,0
rbt_637360,17.661772541503147,61.95,28.50972161663139,13.394479061663205,0
rbt_637918,17.619521902141226,61.95,28.44152042314968,11.427537078866528,0
rbt_626476,15.260186002360555,61.95,24.63306860752309,11.590859282217968,0
rbt_1607350,21.930768940296208,90.3,24.286565825355712,8.843835530037397,0
rbt_606126,13.519326290622637,61.95,21.82296414951192,7.846965533947517,0
rbt_1633671,12.992220910098393,61.95,20.972108006615645,10.406482372355825,0
rbt_3405844,18.937636811473062,90.3,20.9719123050643,7.2671310891262,0
rbt_1627323,15.01929582518367,76.65,19.59464556449272,9.219535276380759,0
rbt_606143,14.821715308405539,76.65,19.336875810052888,6.890120042936125,0
sbt_34378,24.657339602158448,128.1,19.24850866679036,9.445386876190055,0
sbt_34379,24.580369406641182,128.1,19.188422643747995,9.30978824725056,0
rbt_637397,11.71512415400458,61.95,18.91061203229149,8.888240368866253,0
rbt_635862,10.771971245704986,61.95,17.38816988814364,5.996135197215858,0
rbt_3435739,13.111749798788457,76.65,17.106001042124536,8.494225760581687,0
rbt_605816,10.168188021458564,61.95,16.41353998621237,6.287361624776248,0
smt_19119,26.143499084635348,163.8,15.96062215179203,9.78026162672154,0
smt_17184,26.142317302360468,163.8,15.959900672991736,9.779748651957,0
sbt_24791,25.287108414823866,163.8,15.437795125045096,5.842089515851549,0
sbt_3174,25.28709955186546,163.8,15.437789714203575,5.8420911275033385,0
rbt_609688,11.162024023557619,76.65,14.562327493225855,5.383702596696278,0
rbt_1638954,8.578484673431745,61.95,13.847432886895472,6.509386227377796,0
rbt_1607265,12.05064566892574,90.3,13.345122556949878,6.280980473476929,0
rbt_606139,9.295209323461888,76.65,12.126822339806768,4.398253415114067,0
sbt_9361,25.829831046531375,216.3,11.941669462104194,5.6244026876326645,0
rbt_623004,7.220826994666641,61.95,11.655895068065602,4.637506176054239,0
rbt_606121,6.961963559763448,61.95,11.238036416083046,5.280317931487542,0
sbt_11363,18.009877406547698,163.8,10.995041151738521,4.169084135279388,0
rbt_1605991,6.657774677642486,61.95,10.747013200391422,5.052878411813128,0
rbt_1607280,6.605064261744043,61.95,10.661927783283362,5.010792066897461,0
sbt_34393,13.288697642288188,128.1,10.373690587266346,6.820176838323955,0
rbt_606114,9.030324485945204,90.3,10.00035934213201,4.700804189513848,0
rbt_627337,8.790259190074547,90.3,9.734506301300717,4.577847220359028,0
rbt_1621994,8.624027054474839,90.3,9.55041755755796,4.488281482395728,0
rbt_626678,8.425258496789406,90.3,9.330297338637216,4.388148809298532,0
rbt_635543,5.768408092664903,61.95,9.311393208498634,3.784075387816386,0
rbt_606150,5.734882412520975,61.95,9.25727588784661,4.3489984407306785,0
rbt_1607272,8.253816385103477,90.3,9.14043896467716,4.301160545197605,0
smt_34713,26.12921567610898,286.65,9.115372641238089,5.585196598721141,0
smt_34700,26.129061960608023,286.65,9.115319016433986,5.585158889741028,0
smt_34701,26.128697830459217,286.65,9.115191986903618,5.585069581060101,0
smt_34715,26.12838643816358,286.65,9.115083355368423,5.584993227826646,0
smt_34702,26.128078007271522,286.65,9.114975756941051,5.584917619552425,0
smt_34703,26.12765551231923,286.65,9.114828366411732,5.584814080131667,0
smt_34704,26.12714758507412,286.65,9.11465117218703,5.584689650597132,0
smt_34716,26.1268301174272,286.65,9.114540421220026,5.584611904662825,0
smt_34705,26.12651091954998,286.65,9.114429066649217,5.584533754990967,0
smt_34717,26.12613055638424,286.65,9.114296374109276,5.584440656254944,0
smt_34706,26.125745428709966,286.65,9.11416201943484,5.584346420349648,0
smt_34707,26.125291956054927,286.65,9.114003822101841,5.5842354986121725,0
smt_34708,26.124869437518196,286.65,9.113856423344915,5.584132184799047,0
smt_34709,26.124324156271914,286.65,9.113666197897057,5.5839989050093175,0
smt_34718,26.124020384447483,286.65,9.113560224820333,5.583924681258993,0
smt_34710,26.12372331180853,286.65,9.11345658880465,5.583852111915753,0
smt_34719,26.12341259825207,286.65,9.113348194052703,5.583776228847096,0
smt_34711,26.123102879656106,286.65,9.113240146400177,5.583700607695149,0
smt_34720,26.122749735007858,286.65,9.113116949243977,5.5836144065608595,0
smt_34712,26.12242393326274,286.65,9.11300329086438,5.583534901440582,0
smt_34721,26.122190144572023,286.65,9.112921731928145,5.583477863717387,0
smt_34714,26.122180533888326,286.65,9.112918379169136,5.5834755187294745,0
rbt_623007,5.640174175512047,61.95,9.104397377743416,4.277798484379818,0
sbt_22748,19.521697158858384,216.3,9.02528763701266,4.247064801148987,0
sbt_7427,19.521689004759853,216.3,9.02528386720289,4.247060896175332,0
sbt_34383,11.548112302025551,128.1,9.0149198298404,5.311007869161979,0
sbt_34392,11.548109181928348,128.1,9.014917394167329,5.652351944447051,0
sbt_34384,11.533203815330827,128.1,9.003281666924924,4.349306068573523,0
rbt_1630759,6.825266233956394,76.65,8.904456926231433,4.188812377389403,0
rbt_606122,5.512302795604411,61.95,8.897986756423585,4.182439902679643,0
rbt_1229546,8.001022982931456,90.3,8.860490568030405,4.167220548808115,0
rbt_1638606,5.45853221657707,61.95,8.811190018687764,4.143330357359729,0
rbt_605905,7.80916155821366,90.3,8.648019444311917,4.065530597399451,0
rbt_1607283,7.73056814969226,90.3,8.56098355447648,4.027649547728312,0
smt_31417,27.902238940552277,327.6,8.517166953770536,5.242516593961419,0
smt_31416,27.90219086234233,327.6,8.517152277882275,5.242506266457915,0
smt_31411,27.902172540146626,327.6,8.517146685026441,5.242502331055507,0
smt_31412,27.90215180807417,327.6,8.517140356554997,5.242497877547595,0
smt_31413,27.902028868943265,327.6,8.51710282934776,5.242471471736348,0
smt_31414,27.901936481605276,327.6,8.517074628084638,5.242451629616648,0
smt_31415,27.901702378427665,327.6,8.517003168018213,5.242401356931356,0
smt_4387,27.90131738846516,327.6,8.51688564971464,5.242318700505018,0
smt_4863,27.900873162668642,327.6,8.516750049654652,5.242223354985737,0
smt_4693,27.90050047267124,327.6,8.516636285919182,5.242143387106023,0
smt_17964,27.900279132185847,327.6,8.51656872166845,5.233405702844342,0
smt_4591,27.90015987318077,327.6,8.516532317820747,5.242070323793326,0
smt_6826,27.8998159986899,327.6,8.516427350027442,5.2333058072729575,0
smt_4627,27.899798408498874,327.6,8.516421980616261,5.241992804385467,0
smt_4527,27.89950928109527,327.6,8.516333724388055,5.241930813041025,0
smt_7012,27.899281372756526,327.6,8.516264155298083,5.233190532822548,0
smt_23134,27.899039247944685,327.6,8.516190246625362,5.241830061719778,0
smt_22791,27.898802278133925,327.6,8.516117911518291,5.233087269821929,0
smt_18545,27.898617801820567,327.6,8.516061600067328,5.241739754287935,0
smt_7020,27.898242986693003,327.6,8.515947187635225,5.232966766760894,0
smt_10381,27.898171282390045,327.6,8.51592529987486,5.241644104293233,0
smt_18806,27.89794570553785,327.6,8.515856442471872,5.2415957947539535,0
smt_24122,27.897872290233355,327.6,8.515834032427763,5.241580074076726,0
smt_6842,27.897812618985913,327.6,8.515815817761267,5.232874074421159,0
smt_6830,27.897159708868866,327.6,8.515616516748738,5.232733506291859,0
smt_31407,27.896374393292643,327.6,8.515376798929378,5.232564520134515,0
smt_29390,27.89601015947228,327.6,8.51526561644453,5.2325758060961975,0
smt_31408,27.895893432179022,327.6,8.51522998540263,5.240970953547984,0
smt_17776,27.895379006338114,327.6,8.515072956757667,5.232438874420548,0
smt_10747,27.894736715405365,327.6,8.514876897254384,5.232299590354026,0
smt_18202,27.89417892478467,327.6,8.514706631497152,5.232178682974987,0
smt_17794,27.89366130026767,327.6,8.514548626455332,5.232066525603589,0
smt_29420,27.89334145634883,327.6,8.514450994001473,5.231997243673006,0
smt_22739,27.89315453541138,327.6,8.51439393632826,5.231956761848617,0
smt_17795,27.892538192991392,327.6,8.51420579761642,5.231823318047085,0
smt_29389,27.891850559901386,327.6,8.513995897405795,5.231674509257519,0
smt_19163,27.891258015162467,327.6,8.513815022943366,5.231546337546761,0
smt_17961,27.89088034707194,327.6,8.51369973964345,5.231464673829861,0
smt_29388,27.890444761587894,327.6,8.513566777041481,5.23137051425071,0
smt_17962,27.889909387459625,327.6,8.513403353925405,5.231254824144113,0
rbt_1107340,7.401441634276133,90.3,8.19650236353946,3.8574135180548494,0
rbt_1626486,7.400974096619334,90.3,8.195984603122186,3.8515854424219413,0
rbt_605822,7.400683729018409,90.3,8.195663044317175,3.857190750779933,0
rbt_1607287,7.394164281302322,90.3,8.188443279404565,3.8518690719032502,0
smt_6447,26.20795572988478,327.6,7.999986486533815,4.903662162131138,0
smt_6627,26.207562604647293,327.6,7.999866484935072,4.903579126268403,0
smt_24630,26.206935838014825,327.6,7.999675164229189,4.903446795113443,0
smt_24629,26.206549087872137,327.6,7.999557108630078,4.903365172732126,0
smt_24628,26.206033439375297,327.6,7.999399706769015,4.90325638639982,0
smt_24627,26.20565059088741,327.6,7.9992828421512225,4.903175646122186,0
smt_6957,26.20529243704713,327.6,7.999173515582152,4.903100136376063,0
smt_6431,26.204846695075588,327.6,7.999037452709275,4.903006190875452,0
smt_24626,26.204475737370533,327.6,7.9989242177565725,4.902928032848802,0
smt_12228,26.204072392948465,327.6,7.998801096748615,4.902843077744143,0
rbt_606132,4.945735410057719,61.95,7.983430847550797,3.7510421153299247,0
smt_6510,26.153430065659027,327.6,7.983342510884928,4.891285262617766,0
smt_19223,26.152886589672537,327.6,7.983176614674156,4.891169696340052,0
smt_22843,26.152423976421126,327.6,7.98303540183795,4.891071364837329,0
smt_6737,26.15202046069052,327.6,7.982912228538009,4.890985624826688,0
smt_24665,26.151494618633695,327.6,7.98275171508965,4.890873934498127,0
smt_24635,26.1509513519294,327.6,7.982585882762332,4.8907585928621495,0
smt_24637,26.15038919066549,327.6,7.982414282864923,4.890639292942338,0
smt_24636,26.14983942164557,327.6,7.982246465703775,4.890522675210403,0
smt_19174,26.1493388510882,327.6,7.982093666388339,4.89041653855146,0
smt_6686,26.148748303602336,327.6,7.981913401588015,4.89029137913694,0
smt_19173,26.147755170480522,327.6,7.981610247399426,4.890081031175609,0
smt_19172,26.14741956202407,327.6,7.981507802815649,4.890009986664549,0
smt_6544,26.14705334328716,327.6,7.981396014434419,4.889932484330128,0
smt_6535,26.14651202224659,327.6,7.9812307760215475,4.889817967367766,0
smt_24634,26.14532860494943,327.6,7.980869537530351,4.889567789165762,0
smt_24633,26.144906286914352,327.6,7.980740624821231,4.889478567933661,0
smt_24632,26.144451973300594,327.6,7.9806019454519515,4.889382621174034,0
smt_1873,26.14400481497002,327.6,7.980465450235048,4.889288220075175,0
smt_24631,26.143604124980154,327.6,7.980343139493332,4.889203658112215,0
smt_6527,26.143187829111085,327.6,7.980216065052223,4.889115831779616,0
smt_24511,26.142969452742857,327.6,7.980149405599163,4.890015835059656,0
smt_29446,26.14230305609268,327.6,7.979945987818278,4.889871235536284,0
smt_32671,26.14186353927368,327.6,7.979811825175115,4.889775908204167,0
smt_6389,26.141378362921532,327.6,7.979663724945523,4.889670716765175,0
smt_24510,26.141363462757955,327.6,7.979659176666042,4.889667486532224,0
smt_24509,26.140847606940874,327.6,7.979501711520412,4.889555689398009,0
smt_24508,26.14039540923989,327.6,7.979363678034154,4.889457726262925,0
smt_6426,26.139987746969155,327.6,7.979239239001573,4.8893694415442726,0
smt_6420,26.139572104728096,327.6,7.979112364080615,4.889279458285054,0
smt_6140,26.139122948045475,327.6,7.97897525886614,4.889182253031136,0
smt_6653,26.13869451287823,327.6,7.978844478900558,4.889089564851527,0
smt_6650,26.138272347875507,327.6,7.978715612904611,4.888998264210244,0
smt_29445,26.1378582169186,327.6,7.9785891993036016,4.888908731068434,0
smt_24507,26.137432173780645,327.6,7.978459149505691,4.888816653543144,0
smt_24506,26.13700756600988,327.6,7.978329537854053,4.888724917515478,0
smt_24505,26.13656938099318,327.6,7.978195781743949,4.888630280825985,0
smt_24459,26.13619339114483,327.6,7.978081010727969,4.888549103151101,0
smt_24458,26.135740493962324,327.6,7.977942763724763,4.888451353412025,0
smt_24457,26.135284746492527,327.6,7.977803646670489,4.88835302427398,0
smt_24456,26.134865654693453,327.6,7.977675718770895,4.888262635476278,0
smt_24455,26.134435401487977,327.6,7.9775443838485876,4.888169870977935,0
smt_24454,26.134022609883075,327.6,7.9774183790851865,4.888080901420344,0
smt_19165,26.133566803304742,327.6,7.977279243988016,4.887982694968777,0
smt_17113,26.13309020124347,327.6,7.977133761063329,4.887880046441317,0
smt_6993,26.13204449926655,327.6,7.976814560215674,4.8876549651897045,0
smt_24453,26.131409946600684,327.6,7.976620862820721,4.887518473535301,0
smt_24452,26.13091878122535,327.6,7.976470934439972,4.887412872099256,0
smt_24451,26.130488290640205,327.6,7.9763395270574495,4.887320350066737,0
smt_24450,26.130081625022054,327.6,7.976215392253374,4.887232977960753,0
smt_6394,26.129636712141036,327.6,7.976079582460634,4.887137421122129,0
smt_24668,26.12216942945826,327.6,7.973800192142326,4.885538708261335,0
smt_29393,26.121995106182037,327.6,7.973746979909047,4.885501500954156,0
smt_19218,26.120529878852228,327.6,7.973299718819361,4.8851889712660155,0
smt_6502,26.120019959404242,327.6,7.97314406575221,4.885080293128095,0
smt_24667,26.11975347220561,327.6,7.973062720453481,4.885023515017002,0
smt_6683,26.119036933796846,327.6,7.972843996885483,4.884870908876793,0
smt_19220,26.118455490208014,327.6,7.972666511052506,4.884747139645936,0
smt_22844,26.11805109925187,327.6,7.972543070589704,4.884661093022404,0
smt_6687,26.117606728591703,327.6,7.972407426310044,4.884566571869119,0
smt_24666,26.117273571554538,327.6,7.972305730022752,4.884495729009817,0
rbt_623433,7.160497217039966,90.3,7.9296757663787005,3.731268360275175,0
rbt_626698,7.113064130372373,90.3,7.877147431198642,3.7024004460108872,0
rbt_1607252,5.9925978969821,76.65,7.818131633375211,3.6769083689111013,0
rbt_637356,4.68416329986984,61.95,7.561199838369394,3.5544405708243576,0
rbt_631391,6.741574255845783,90.3,7.46575222131316,5.654247968917402,0
rbt_605855,5.558365640771943,76.65,7.25161857895883,3.4111816813289466,0
rbt_1607255,6.492970451003004,90.3,7.190443467334445,3.3802020735032254,0
rbt_636933,5.40531038288341,76.65,7.051937877212537,3.318380967638932,0
rbt_605910,4.246797940755166,61.95,6.855202487094698,3.2202452030861504,0
rbt_627343,6.148485154001443,90.3,6.808953658916327,3.199561561571581,0
rbt_1607304,4.131503281442356,61.95,6.6690932710933915,3.131988958011631,0
rbt_1607305,5.835438800721408,90.3,6.462279956502114,3.038318331987119,0
rbt_1607285,3.9652531354984184,61.95,6.400731453589052,3.0052273965047935,0
rbt_606103,4.8166696929410895,76.65,6.283978725298224,2.9540038134249773,0
rbt_3405846,4.800666484679597,76.65,6.263100436633525,2.945320973798543,0
smt_29422,26.146072826815836,419.0,6.2401128464954265,3.8230881626408983,0
rbt_606109,3.8243252324396164,61.95,6.173244927263303,2.9001676072895766,0
rbt_605825,5.571755214911596,90.3,6.170271555826795,2.9015781414048685,0
sbt_4580,10.021043537781622,163.8,6.117853197668878,2.8788895234257077,0
rbt_1631852,5.516000730031987,90.3,6.108527940234758,2.87133646495796,0
rbt_605993,5.484157352026898,90.3,6.073263955732999,2.854282887119847,0
rbt_621999,5.44405564819563,90.3,6.028854538422625,2.833969106845393,0
rbt_630753,5.439996846888098,90.3,6.0243597418472845,2.833237662239044,0
sbt_28279,12.992233083016727,216.3,6.006580251047955,2.9804973526734915,0
sbt_20214,12.992225651483636,216.3,6.006576815295254,2.980497641598207,0
sbt_6049,9.829411581462722,163.8,6.000861771344763,2.8240919375640012,0
smt_6110,19.41598825862549,327.6,5.926736342681773,3.373904250024641,0
rbt_607384,3.6018341560411433,61.95,5.8140987183876405,2.73176194930401,0
rbt_1607278,4.449618339307238,76.65,5.805111988659149,2.7278062918918113,0
rbt_1628760,5.22557732774091,90.3,5.786907339690931,2.7191151782046794,0
smt_24515,18.936105336542067,327.6,5.7802519342314,3.3471729697765347,0
smt_6552,18.935709813737265,327.6,5.780131200774501,3.3470776258474113,0
smt_6549,18.935187197345208,327.6,5.779971671961296,3.3469516996056434,0
smt_23959,18.934730826428474,327.6,5.779832364599656,3.3468417863325146,0
smt_22744,18.934183313382334,327.6,5.779665236075193,3.34670998483379,0
smt_19175,18.933727930411116,327.6,5.779526230284223,3.3466004136513074,0
smt_19177,18.93320938829514,327.6,5.779367945145037,3.3464757030859373,0
smt_19176,18.932664389197722,327.6,5.779201584004189,3.3463446957190772,0
smt_19164,18.932427084379995,327.6,5.77912914663614,3.346287673308708,0
smt_32311,18.932018740443834,327.6,5.779004499524979,3.346189581770084,0
smt_39119,18.93152892855797,327.6,5.778854984297304,3.3460719708061384,0
smt_32312,18.931505930882743,327.6,5.778847964249921,3.3460664501978177,0
smt_32310,18.931487178059417,327.6,5.7788422399448764,3.346061948070584,0
smt_32309,18.931033916266376,327.6,5.7787038816441925,3.3459531661501067,0
smt_32314,18.930826684134882,327.6,5.778640623972796,3.3459034464663695,0
smt_32313,18.930810947424053,327.6,5.778635820337012,3.3458996711138433,0
smt_6802,18.930630498155683,327.6,5.77858073814276,3.4058259209820325,0
smt_24514,18.930064447472684,327.6,5.778407950998988,3.4056908209928434,0
smt_24513,18.929476561376614,327.6,5.778228498588709,3.405550584030557,0
smt_19166,18.92901524018785,327.6,5.778087680155021,3.4054405916289436,0
smt_6414,18.928564908022768,327.6,5.777950216124165,3.4053332645135597,0
smt_18852,18.928109119149315,327.6,5.777811086431415,3.405224682317719,0
smt_6403,18.927603368316145,327.6,5.777656705835208,3.405104251249758,0
smt_1832,18.927163691163404,327.6,5.777522494250123,3.4049995996338613,0
smt_1831,18.926735327286206,327.6,5.77739173604585,3.4048976817488192,0
smt_1829,18.92589428428496,327.6,5.7771350074129915,3.404697695340053,0
smt_1828,18.925285435487,327.6,5.776949156131563,3.40455301824452,0
rbt_3433894,5.194868832174998,90.3,5.752900146373198,2.7048302327048788,0
smt_6350,18.83048140804606,327.6,5.748010197816257,3.3300324158665267,0
smt_24517,18.828257604009032,327.6,5.747331380955138,3.3297184223288543,0
smt_24520,18.82757600751146,327.6,5.747123323416196,3.329554008546842,0
smt_19116,18.827254150616422,327.6,5.747025076500739,3.329476407586425,0
rbt_1607357,4.382763141045884,76.65,5.717890594971799,2.6874874284859076,0
rbt_605806,4.78763001681849,90.3,5.30191585472701,2.491685345091816,0
rbt_622714,4.714724454403448,90.3,5.221178797788979,2.455337372587898,0
smt_6066,8.480762302855787,163.8,5.177510563404021,3.0047768062519857,0
smt_6062,8.480333397389675,163.8,5.177248716355113,3.0046642612449017,0
smt_6719,8.47985963100642,163.8,5.1769594816889,3.0045404176501993,0
smt_6176,8.47932532525875,163.8,5.176633287703755,3.0044000885727082,0
smt_6144,8.478826110622379,163.8,5.176328516863479,3.004270084222895,0
smt_6227,8.478296678819655,163.8,5.176005298424697,3.004132079304341,0
smt_19063,8.477784956256196,163.8,5.175692891487298,3.0039992501136488,0
smt_6092,8.47727757677122,163.8,5.175383136001965,3.0038671781733055,0
smt_29474,8.476837863948823,163.8,5.175114691055447,3.0037544038011936,0
smt_29473,8.476345471684374,163.8,5.1748140852773945,3.0036277653696573,0
smt_19115,8.475852704849734,163.8,5.174513250824013,3.003500029904666,0
smt_24512,8.475464065501486,163.8,5.174275986264643,3.003395687038546,0
rbt_1607258,3.9411653340087343,76.65,5.141768211361688,2.4181977871324825,0
smt_37840,8.37155392028998,163.8,5.110838779175811,2.9761240299605998,0
smt_6474,8.371203728180792,163.8,5.110624986679359,2.9760323518337195,0
smt_19061,8.37076980836309,163.8,5.110360078365744,2.975918013469988,0
smt_29476,8.370345758748448,163.8,5.110101195817123,2.9758075346514095,0
smt_6594,8.369827805952871,163.8,5.109784985319213,2.975671955918465,0
smt_29475,8.369305378031461,163.8,5.109466042754249,2.975534871114149,0
smt_19011,8.368854912614198,163.8,5.109191033342001,2.9754182905503215,0
smt_19014,8.368338377140162,163.8,5.108875688119756,2.9752841949816116,0
rbt_627328,4.6015271407269775,90.3,5.095821861270186,2.3986347876196477,0
sbt_5830,8.26848690481538,163.8,5.047916303306092,2.3753650201257197,0
rbt_621168,3.8296817707127597,76.65,4.996323249462177,2.3485252189943835,0
rbt_605815,4.493915701171411,90.3,4.9766508318620275,2.3404756709147696,0
rbt_1107330,4.492645239164475,90.3,4.97524389719211,2.3417105942704506,0
rbt_621171,3.0748704147228305,61.95,4.963471210206345,2.331905023443682,0
rbt_3422597,4.473658205034736,90.3,4.954217281323075,2.3301596271512843,0
rbt_606127,3.052150603661592,61.95,4.926796777500552,2.314714334819926,0
rbt_635966,3.0352240999360984,61.95,4.899473930486034,2.3021199786971276,0
rbt_1124041,4.413911109320926,90.3,4.888052169790616,2.2990957762426474,0
rbt_605921,3.637472679665051,76.65,4.745561225916569,2.2308264519122325,0
sbt_14007,7.730567867585879,163.8,4.7195164026775815,2.2203707242199817,0
sbt_25907,10.16821239489389,216.3,4.700976604204294,1.8007488801192733,0
sbt_21361,10.168205694533885,216.3,4.7009735064881575,1.800748980102585,0
sbt_20771,10.168200344111005,216.3,4.7009710328761,1.8007511263648903,0
rbt_627336,4.222530055088523,90.3,4.676113017816748,2.197213893267504,0
rbt_1627321,4.206512043775762,90.3,4.658374356340821,2.1898681711763444,0
rbt_1607355,4.188831253867788,90.3,4.638794301071747,2.180459400864972,0
rbt_605902,2.873270584654827,61.95,4.638047755697864,2.179557584781288,0
sbt_35173,5.835438405799294,128.1,4.5553773659635395,2.1417650621290125,0
rbt_1607358,3.487816598787811,76.65,4.550315197374834,2.139114163891769,0
sbt_21952,9.829410755843298,216.3,4.544341542229911,2.138632251134106,0
sbt_20840,7.40068371794478,163.8,4.518121927927216,2.1263999762283405,0
sbt_6273,7.394163978619302,163.8,4.514141623088706,2.123466090414547,0
smt_6536,12.856828432974572,286.65,4.485200918532906,2.6355388994647337,0
smt_6703,12.856229973317713,286.65,4.484992141398121,2.635393570965267,0
smt_6514,12.85564301767254,286.65,4.484787377523998,2.635251187510147,0
smt_6984,12.855553414647447,286.65,4.4847561188374145,2.635229464693609,0
smt_5854,12.85464162672207,286.65,4.484438034788791,2.6350086170769784,0
smt_5855,12.853958344752572,286.65,4.484199666754778,2.6348433546801004,0
smt_5657,12.85339821675202,286.65,4.484004261905467,2.6347080312083637,0
smt_21743,12.85280760443327,286.65,4.4837982223733714,2.6345654916490564,0
smt_22741,12.852202338596902,286.65,4.4835870708518755,2.634419574153021,0
smt_6098,12.85172140003682,286.65,4.483419291832137,2.6343037440263473,0
smt_19120,12.851163598102014,286.65,4.483224698448287,2.6341695291930862,0
smt_22740,12.850611423358322,286.65,4.483032068152214,2.6340368029818,0
smt_22738,12.834585918363816,286.65,4.477441450676371,2.628208632486447,0
smt_6754,12.834083446419676,286.65,4.477266159574281,2.628086720714289,0
smt_6567,12.833572586624346,286.65,4.477087942307464,2.62796288670981,0
smt_6746,12.833064679920223,286.65,4.476910755248639,2.6278398814675348,0
smt_6812,12.832565467144086,286.65,4.476736601131724,2.627719091531722,0
rbt_3405838,4.0171961088686015,90.3,4.448722158215506,2.0936359425970914,0
rbt_622273,2.5571568122597386,57.75,4.427977164086128,2.084474978044822,0
rbt_1107341,2.7391266857511805,61.95,4.4215120028267645,2.0802127834224824,0
rbt_638617,2.7283945479024543,61.95,4.404188132207351,2.071932388227122,0
rbt_605828,3.968766825132503,90.3,4.395090614764677,2.0685496922657234,0
rbt_1607292,3.893368841542181,90.3,4.311593401486357,2.0273650958783596,0
rbt_1626490,3.851470283780582,90.3,4.265194112713823,3.230569062159582,0
rbt_1635060,2.6421674332802074,61.95,4.264999892300577,2.0057238580880115,0
sbt_37156,6.961963347157155,163.8,4.250282873722317,1.9970431891171214,0
rbt_605867,3.8294212491992856,90.3,4.240776577186363,1.9942525124351873,0
sbt_4615,6.866456591826464,163.8,4.191975941285997,1.9736857873867102,0
sbt_3373,6.866455410572063,163.8,4.191975220129464,1.973684998536539,0
sbt_20793,6.866454324282935,163.8,4.1919745569492886,1.9736842799243988,0
sbt_4010,6.866452636670134,163.8,4.191973526660643,1.973683175765008,0
sbt_28804,6.866451100536115,163.8,4.191972588849887,1.9736821829191034,0
rbt_605812,3.7391962728058794,90.3,4.140859659807176,1.9490411910993208,0
rbt_632613,3.7361230540156427,90.3,4.137456316739361,1.946276764277365,0
rbt_622713,3.717718417747484,90.3,4.1170746597425065,1.9346968460397782,0
rbt_606120,2.5386384795973265,61.95,4.097882937203109,1.9248381870846059,0
sbt_26269,8.790258826180064,216.3,4.063919938132254,1.911139928081225,0
smt_7052,6.582128085701804,163.8,4.018393214714166,2.1553273776019677,0
rbt_1132019,3.619531500503302,90.3,4.008340532118829,1.8848091800030886,0
rbt_605863,3.601965272327813,90.3,3.988887344770557,1.8761811776490334,0
rbt_634166,3.027293345226759,76.65,3.949502081182986,1.8559894822908836,0
rbt_1138614,2.430232461613666,61.95,3.922893400506321,1.844630756749799,0
sbt_4118,11.162031522081818,286.65,3.8939583192331484,1.4395986062679391,0
rbt_605803,3.4983651567420773,90.3,3.8741585345980925,1.8212958873266274,0
smt_37837,8.37214269095934,216.3,3.8706161308180027,2.2538819405071258,0
smt_37841,8.371776520868973,216.3,3.8704468427503342,2.2538075604051007,0
rbt_605834,3.4726547371914536,90.3,3.845686309182119,1.810653059693925,0
rbt_605904,2.376747525217545,61.95,3.8365577485351814,1.8013497585178655,0
smt_29484,6.2818620470213995,163.8,3.8350806147871794,1.8997217732378215,0
smt_22951,6.281848628087709,163.8,3.8350724225199686,1.8997135053794958,0
smt_19381,6.280518930487133,163.8,3.834260641323036,1.8988953715164987,0
smt_18804,6.279826612195969,163.8,3.8338379805836196,1.8984702444618098,0
smt_19380,6.279033176192282,163.8,3.833353587418976,1.8979837365875063,0
smt_5349,6.2783974284749755,163.8,3.8329654630494354,1.8975944684091857,0
smt_18803,6.27775166583154,163.8,3.83257122456138,1.8971995712670562,0
smt_13454,6.277092241930849,163.8,3.8321686458674296,1.8967968451184831,0
smt_19377,6.276308324742782,163.8,3.8316900639455325,1.8963187805728239,0
smt_29411,6.275322704544502,163.8,3.83108834221276,1.8957187815292207,0
smt_8954,6.274717088274269,163.8,3.830718613110054,1.8953507057479746,0
smt_5584,6.274011076421299,163.8,3.830287592442795,1.894922186159774,0
rbt_605810,2.9311230830502417,76.65,3.82403533339888,1.7973825263689307,0
rbt_605864,3.443864108147799,90.3,3.813802999056256,1.793856307973127,0
rbt_609682,2.9030699577143406,76.65,3.78743634405002,1.7819327673740428,0
rbt_622703,2.3295881697963137,61.95,3.7604328810271404,2.8487165225012254,0
rbt_605835,3.3938027023294004,90.3,3.758364011438982,1.7695221114761228,0
sbt_14006,6.145066342998902,163.8,3.7515667539675834,1.764331068185749,0
smt_25186,6.063740703477225,163.8,3.701917401390247,2.0009264751999365,0
sbt_27416,8.001022856038276,216.3,3.6990396930366507,1.7397133723969036,0
sbt_15213,8.001022800707892,216.3,3.69903966745626,1.739713360440728,0
rbt_606128,2.8202907242563025,76.65,3.6794399533676483,1.7292232115352446,0
rbt_1607257,3.2925178096110974,90.3,3.6461991247077488,1.7140286730644796,0
rbt_607385,3.285750624263864,90.3,3.6387050102589855,1.7115484228042783,0
rbt_3405845,3.2751877122021753,90.3,3.6270074332250006,1.7074335621309071,0
rbt_633056,3.2710317215945905,90.3,3.6224050073029797,1.703232440843751,0
rbt_606141,3.267114943227403,90.3,3.6180674897313434,1.7033821048608015,0
rbt_623015,3.2587234902503566,90.3,3.6087746292916467,2.7334994129561405,0
sbt_34389,4.601525898021112,128.1,3.5921357517729215,2.764452641209745,0
smt_37855,7.732512759149948,216.3,3.574901876629657,1.9502194755666047,0
smt_37854,7.732129166598181,216.3,3.574724533794813,1.9501732975385984,0
smt_37853,7.73177613875178,216.3,3.5745613216605547,1.9501327409253204,0
smt_37852,7.731413743547856,216.3,3.5743937788015976,1.9500898897407064,0
smt_37851,7.731072376520638,216.3,3.5742359577071836,1.950051297642463,0
smt_37850,7.730717271637599,216.3,3.5740717853155792,1.95001061881102,0
smt_37849,7.730363582098041,216.3,3.573908267266778,1.94997098635282,0
smt_37848,7.729997222587616,216.3,3.573738891626267,1.9499294627541917,0
smt_37847,7.72963220436935,216.3,3.5735701360930885,1.94988308859733,0
smt_37846,7.729375629809852,216.3,3.573451516324481,1.9498589072934556,0
smt_37845,7.72902538805683,216.3,3.5732895922592838,1.9498209837544251,0
smt_38000,7.72865202661918,216.3,3.573116979481821,1.9497767263042387,0
smt_38002,7.728335801604104,216.3,3.572970782063848,1.949726356520151,0
smt_38001,7.728327599486604,216.3,3.572966990053908,1.9497257321141286,0
smt_37843,7.728315151248665,216.3,3.5729612349739552,1.9497409581597562,0
smt_37842,7.727970727180582,216.3,3.5728020005458077,1.9496947544872378,0
smt_37838,7.727792712468629,216.3,3.5727197006327454,1.949680725530162,0
rbt_605982,3.1921342186540507,90.3,3.5350323573134554,1.6633521205112463,0
rbt_1606000,3.1910863334797117,90.3,3.533871908615406,1.6615334225081309,0
rbt_1629639,3.1777066141221795,90.3,3.519054943656899,1.6533986529649154,0
sbt_3952,5.743559794099016,163.8,3.50644676074421,1.650315096172812,0
sbt_4120,5.743558394068589,163.8,3.506445906024779,1.6503141840435152,0
sbt_20855,5.743557027132955,163.8,3.50644507150974,1.6503133011655218,0
sbt_20854,5.743555727027837,163.8,3.506444277794772,1.6503124681907468,0
rbt_635963,2.1716260447254183,61.95,3.5054496282896177,1.6465320441462545,0
rbt_626481,3.123015953900246,90.3,3.4584894284609593,1.625724926817855,0
rbt_1607306,2.633409428150401,76.65,3.435628738617613,1.6155205658870626,0
rbt_605901,3.0928255026509737,90.3,3.4250559276312003,1.6094115682521395,0
rbt_605820,2.620514636063452,76.65,3.4188057874278566,1.6081243940955252,0
rbt_3405847,3.0855121975425006,90.3,3.4169570293936884,1.6084610612855286,0
sbt_34000,7.347057617102012,216.3,3.3966979274627884,1.5966858649822526,0
rbt_1607289,2.6034360213174965,76.65,3.3965244896510067,1.5961639922004955,0
smt_6512,9.6664364076989,286.65,3.3722087590088607,1.9937980516839815,0
smt_6425,9.666034796575216,286.65,3.3720686539596083,1.9937105740858654,0
smt_6930,9.66541952488941,286.65,3.371854011822575,1.993576761183791,0
sbt_20828,5.512301538563073,163.8,3.36526345455621,1.5818194380971116,0
smt_15243,5.478768398482062,163.8,3.344791452064751,1.9882322353779707,0
smt_26472,5.47830467618153,163.8,3.3445083493171732,1.9881226635189044,0
smt_14780,5.477779082017812,163.8,3.3441874737593476,1.9879977221118637,0
smt_14754,5.477254607158324,163.8,3.343867281537438,1.987873687080203,0
smt_14729,5.476732741861224,163.8,3.3435486824549594,1.992269882003705,0
smt_21229,5.476202963179456,163.8,3.3432252522463095,1.992146659486129,0
smt_26474,5.475703728918064,163.8,3.3429204694249472,1.9920304793316952,0
smt_22453,5.4752633970258175,163.8,3.342651646535908,1.99193161492931,0
smt_14544,5.474734470572739,163.8,3.342328736613393,1.9918111494256117,0
smt_14113,5.474206199919214,163.8,3.3420062270569066,1.9916927745676194,0
smt_22508,5.473626622414506,163.8,3.3416523946364505,1.9915607015399608,0
smt_14452,5.4731156503676495,163.8,3.3413404458898954,1.9914443329042062,0
smt_30311,5.472686857454861,163.8,3.3410786675548603,1.99135147431619,0
smt_26478,5.472158054969785,163.8,3.3407558333148866,1.9912320023949712,0
sbt_37537,7.220858062312603,216.3,3.3383532419383277,1.328218974426143,0
sbt_37545,7.220849434413766,216.3,3.3383492530807977,1.3282195569933486,0
sbt_37546,7.220832748561485,216.3,3.3383415388633773,1.3282184670473804,0
sbt_37539,7.212322992056526,216.3,3.334407300997007,1.9038187537865987,0
sbt_37538,7.212317472633751,216.3,3.334404749252774,1.9038192754012924,0
rbt_1609690,2.9938586966507907,90.3,3.3154581358259034,1.55788091565925,0
smt_22686,9.46426499395794,286.65,3.3016797467147883,2.046878148601167,0
smt_6239,9.463790522725873,286.65,3.301514223870879,2.046771981567329,0
smt_23961,9.463327355015934,286.65,3.3013526443453465,2.04666847942787,0
smt_29407,9.462856164632681,286.65,3.3011882660501244,2.0465633222673545,0
smt_6278,9.46243411434492,286.65,3.3010410306453584,2.046469249984896,0
smt_37856,7.140018842817527,216.3,3.300979585213836,1.8337874750632748,0
smt_6630,9.461941992619236,286.65,3.3008693502945183,2.0463597004106715,0
smt_19070,9.461447485900747,286.65,3.30069683792107,2.0462497732770797,0
smt_6639,9.460953230710821,286.65,3.300524413295246,2.0461400559261107,0
smt_19117,9.460491833450847,286.65,3.300363451404447,2.0460377716041527,0
smt_21514,9.455201908144215,286.65,3.2985180213306173,2.0402427635715474,0
smt_5615,9.454725042974989,286.65,3.2983516633437953,2.040134454310614,0
smt_18742,9.454353641896281,286.65,3.2982220972950573,2.0400501958280497,0
smt_6270,9.453770292445387,286.65,3.298018591468826,2.0399180250726325,0
smt_5967,9.453316534427127,286.65,3.29786029458473,2.039815361455329,0
smt_5772,9.45278121509612,286.65,3.2976735444256486,2.0396944081945803,0
smt_6158,9.452251725065207,286.65,3.2974888278615757,2.039574946768278,0
smt_6263,9.451793126841903,286.65,3.2973288424356895,2.039471620289538,0
smt_6384,9.451224341041582,286.65,3.297130417248067,2.039343649238953,0
smt_22684,9.450667749003742,286.65,3.2969362459458376,2.0392186167559943,0
smt_22685,9.450213573654882,286.65,3.2967778034728354,2.039116734316425,0
smt_29447,9.449737364257707,286.65,3.2966116742570066,2.0390100476023205,0
smt_19065,9.449227163948077,286.65,3.2964336870567164,2.0388959033497014,0
smt_24385,9.448650616755582,286.65,3.2962325542492876,2.038767112179975,0
smt_29448,9.446500133369641,286.65,3.295482342009294,2.025506855674792,0
smt_6824,9.446035885856151,286.65,3.2953203857862032,2.025399094678477,0
smt_6855,9.44553804666198,286.65,3.295146710853648,2.025283682668741,0
smt_19062,9.444956606983398,286.65,3.2949438712657946,2.025149081926758,0
smt_7054,9.444494406621171,286.65,3.294782629206758,2.025042232431247,0
smt_6446,9.444022121137547,286.65,3.2946178688775674,2.0249331869798834,0
smt_39006,9.4435381927394,286.65,3.2944490468304206,2.0248215956118316,0
smt_39008,9.443100870902516,286.65,3.2942964838313333,2.0247208748498897,0
smt_39007,9.44308243725783,286.65,3.2942900531162853,2.024716632317139,0
smt_6122,9.44266271048462,286.65,3.294143628286977,2.0246200803317973,0
smt_18741,9.442132994327025,286.65,3.2939588328369185,2.0244983822641696,0
smt_5938,9.441642178715846,286.65,3.2937876081339077,2.0243857762933337,0
smt_5946,9.441075356451115,286.65,3.2935898679403857,2.0242559181687496,0
sbt_34382,4.2145380895626845,128.1,3.29003754064222,1.5461466894739695,0
rbt_1625170,2.9692813448919457,90.3,3.2882406920176592,1.5451956636820194,0
rbt_605821,4.198491674545818,128.1,3.2775110652192176,1.539930746072705,0
sbt_35105,4.188830893347335,128.1,3.269969471777779,1.5370448600966562,0
smt_856,5.341636203085298,163.8,3.2610721630557373,1.9477927961761565,0
smt_15622,5.3410549665916855,163.8,3.2607173178215416,1.9476515367175702,0
smt_23196,5.340731902423703,163.8,3.2605200869497573,1.9475772761458094,0
smt_15581,5.340385534987507,163.8,3.260308629418502,1.9474980773912318,0
smt_15568,5.340010575261953,163.8,3.2600797162771387,1.9474116567306767,0
rbt_605988,2.930132150464086,90.3,3.244886102396552,1.5273039776397617,0
rbt_605804,1.986994339820963,61.95,3.207416206329238,1.5074012540810484,0
smt_23147,5.238849688610042,163.8,3.1983209332173637,1.9167320714071305,0
smt_16038,5.238532890059495,163.8,3.198127527508849,1.9166729729486398,0
smt_13546,5.195949789164955,163.8,3.172130518415724,1.8982335505032173,0
smt_21225,5.195637916892868,163.8,3.1719401202032156,1.8981591835041762,0
smt_13930,5.195076800844626,163.8,3.1715975585132026,1.8980178203496687,0
smt_21226,5.194519701201904,163.8,3.171257448841211,1.8978758397456141,0
smt_13280,5.194093453845883,163.8,3.1709972245701357,1.8977693206587334,0
smt_14437,5.193687650568923,163.8,3.1707494814218085,1.8976688519299476,0
smt_13955,5.193278473039441,163.8,3.170499678290257,1.8975680707413876,0
sbt_6048,5.193111312028348,163.8,3.170397626390933,1.4921159948948735,0
smt_26469,5.192863916649545,163.8,3.170246591361138,1.8974651790889183,0
smt_20808,5.192501596490703,163.8,3.170025394682969,1.8973770330114317,0
smt_23095,5.192122179037289,163.8,3.169793760096025,1.8972803965302019,0
smt_20807,5.1919308358729115,163.8,3.169676944977357,1.89723893020673,0
smt_13717,5.191527411837803,163.8,3.1694306543576327,1.8971395353965184,0
rbt_605829,2.8564854044683785,90.3,3.1633282441510286,1.4872053062336683,0
smt_37925,6.828842084736632,216.3,3.15711608170903,1.7630657744471823,0
smt_37924,6.828669575702014,216.3,3.1570363271853967,1.7630610535395552,0
smt_37923,6.828300410965379,216.3,3.156865654630318,1.7630266841205786,0
smt_37864,6.827936515041274,216.3,3.1566974179571305,1.762982151884297,0
smt_37863,6.827764121039714,216.3,3.156617716615679,1.7629663921943752,0
smt_37862,6.827591913320167,216.3,3.1565381013962863,1.7629573174504243,0
smt_37861,6.827307477103793,216.3,3.1564066006027707,1.7629351310422887,0
smt_37860,6.826963148209549,216.3,3.156247410175473,1.762905318202464,0
smt_37859,6.826600069906617,216.3,3.156079551505602,1.7628673764060043,0
smt_37858,6.826329553733253,216.3,3.155954486238212,1.7628496450894253,0
smt_37831,6.825955519479675,216.3,3.155781562403918,1.762804799592992,0
sbt_15045,6.825263566046828,216.3,3.15546165790422,1.48438369351981,0
smt_37898,6.808011255952827,216.3,3.1474855552255327,1.755830464553542,0
smt_37897,6.807600583482219,216.3,3.147295692779574,1.7557783532478337,0
smt_14797,5.155047871123053,163.8,3.147159872480496,1.8794033905002763,0
smt_37896,6.807243765013563,216.3,3.1471307281616103,1.755736114194957,0
smt_37895,6.806861034826498,216.3,3.146953784015949,1.7556897323090184,0
smt_23041,5.154637684155694,163.8,3.1469094530865043,1.8792992356914402,0
smt_37894,6.80648442940892,216.3,3.1467796714789276,1.7556437595521333,0
smt_14823,5.154221980403861,163.8,3.1466556656922227,1.879194165831039,0
smt_37893,6.806128231865487,216.3,3.1466149939276407,1.7556018932051947,0
smt_37892,6.8057564229453185,216.3,3.1464430989113814,1.7555572386143095,0
smt_13752,5.153800238786087,163.8,3.1463981921770983,1.8790798863643479,0
smt_37891,6.805397807601684,216.3,3.146277303560649,1.7555158396902044,0
smt_37890,6.805016472331256,216.3,3.1461010043140343,1.7554766427244983,0
smt_37889,6.8045012168072185,216.3,3.1458627909418486,1.755405864705357,0
smt_37888,6.804242286011795,216.3,3.1457430818362435,1.7553753506926777,0
smt_37887,6.803994399336789,216.3,3.1456284786577844,1.7553524671965046,0
smt_37886,6.803610800890141,216.3,3.1454511330976147,1.7553077888662123,0
smt_37885,6.803241203443438,216.3,3.145280260491649,1.7552657231082989,0
smt_37884,6.80286783704671,216.3,3.1451076454215023,1.755223361940537,0
smt_37883,6.802493224060957,216.3,3.144934454027257,1.7551815497640304,0
smt_37882,6.802107362892212,216.3,3.1447560623634816,1.7551376579323688,0
smt_37881,6.801734280842785,216.3,3.1445835787530214,1.7550962688525817,0
smt_37880,6.801355642690082,216.3,3.144408526440167,1.7550532244396473,0
smt_37879,6.800999697729731,216.3,3.1442439656633057,1.755015641092429,0
smt_37878,6.800607239192192,216.3,3.144062523898378,1.7549715361975569,0
smt_37877,6.8002380776787446,216.3,3.143891852833446,1.754931946793015,0
smt_37876,6.799855384100704,216.3,3.1437149256129002,1.7548905913938306,0
smt_37875,6.799470942117645,216.3,3.1435371900682587,1.7548493004177443,0
smt_37874,6.799084975190555,216.3,3.143358749510196,1.7548075013719242,0
smt_37873,6.798710101254005,216.3,3.1431854374729564,1.7547663630093828,0
smt_37945,6.798362099093856,216.3,3.1430245488182416,1.7547246911371583,0
smt_37944,6.798114019435679,216.3,3.1429098564196387,1.7547006880905434,0
smt_37943,6.797823549504672,216.3,3.1427755661140413,1.754672834813876,0
smt_37942,6.797481930385668,216.3,3.1426176284723386,1.7546371481134655,0
smt_37941,6.797143192011001,216.3,3.1424610226588072,1.754601953790431,0
smt_37940,6.796807591310689,216.3,3.1423058674575537,1.754567808170594,0
smt_37939,6.796464916436549,216.3,3.1421474417182376,1.7545331600285534,0
smt_37938,6.796115007000401,216.3,3.1419856712900605,1.7544978350188598,0
smt_37937,6.795761013994468,216.3,3.141822012942426,1.7544617935531288,0
smt_37936,6.7954130886242705,216.3,3.1416611597893067,1.7544269111465525,0
smt_37935,6.79506499863328,216.3,3.141500230528562,1.7543904563590058,0
smt_37934,6.794750134225996,216.3,3.141354662147941,1.7543608261949932,0
smt_37933,6.794406040435984,216.3,3.141195580414232,1.7543270584453985,0
smt_37932,6.794059998642239,216.3,3.14103559807778,1.7542932203799657,0
smt_23225,5.14115622547934,163.8,3.138679014334151,1.8724040511129918,0
smt_21220,5.14069130701867,163.8,3.1383951813300794,1.8722822438517273,0
smt_14845,5.14020557568577,163.8,3.1380986420548047,1.8721555876827198,0
smt_26425,5.139702676646297,163.8,3.137791621884186,1.872024837240508,0
smt_20810,5.139202925647525,163.8,3.137486523594337,1.8718943325284114,0
smt_26429,5.138782053487218,163.8,3.137229580883527,1.8717860087298295,0
smt_26430,5.138364608104402,163.8,3.1369747302224673,1.8716790755887185,0
smt_21222,5.125305381141425,163.8,3.129002064188904,1.865976031424822,0
smt_14301,5.124964981387974,163.8,3.128794249931608,1.8658846616707834,0
smt_23277,5.124534900800588,163.8,3.128531685470444,1.8657680902182026,0
smt_26427,5.1241303484351395,163.8,3.1282847060043584,1.8656594607711952,0
rbt_1607316,2.824634170332881,90.3,3.1280555596155932,2.37043956401773,0
smt_20812,5.1237039687641825,163.8,3.128024400954934,1.8655451953040287,0
smt_15154,5.123276633681518,163.8,3.127763512626079,1.8654308406882716,0
rbt_1107342,1.9376234030189792,61.95,3.1277213930895544,1.4707077301227411,0
smt_14674,5.12287361357816,163.8,3.127517468606935,1.865324880156756,0
smt_37986,6.718114780133941,216.3,3.1059245400526776,1.7764692078062572,0
smt_37987,6.717850226087424,216.3,3.105802231200843,1.7764305823588777,0
smt_37993,6.7175122245021335,216.3,3.1056459660204037,1.7763758191790853,0
smt_37920,6.717343231963179,216.3,3.105567837246037,1.776355494293784,0
smt_37919,6.716933025370295,216.3,3.1053781901850646,1.776293643069531,0
smt_37918,6.716530339260143,216.3,3.105192020000066,1.7762329547447573,0
smt_37917,6.716145110783349,216.3,3.1050139208429717,1.776175772697236,0
smt_37916,6.71574818430473,216.3,3.1048304134557236,1.7761167075574569,0
smt_37915,6.715356641569877,216.3,3.104649395085472,1.7760564549525846,0
smt_37914,6.715065770235339,216.3,3.104514919202653,1.7760157052345686,0
smt_37913,6.7146849435321,216.3,3.1043388550772533,1.7759602822719633,0
smt_37912,6.71428417927611,216.3,3.104153573405506,1.775901403922669,0
smt_40685,6.713896026033462,216.3,3.1039741220681742,1.7758443761581992,0
smt_37911,6.713528343558963,216.3,3.1038041347937875,1.775782493614875,0
smt_37910,6.713506792526278,216.3,3.103794171302024,1.7757886833974956,0
smt_37909,6.713112179764208,216.3,3.103611733594178,1.775731560258112,0
smt_37908,6.712725332806431,216.3,3.1034328861795797,1.7756764545169068,0
smt_40683,6.7123208118830915,216.3,3.1032458677221877,1.7756178725427236,0
smt_37906,6.71194479517498,216.3,3.1030720273578267,1.7755647039294649,0
smt_37905,6.71155516157463,216.3,3.1028918916202635,1.775508759643789,0
smt_37904,6.711192418200948,216.3,3.1027241877951677,1.7754575939201185,0
smt_37903,6.710828581397426,216.3,3.1025559784546584,1.7754040300296399,0
smt_37963,6.661550497831297,216.3,3.07977369294096,1.75317368895107,0
smt_37983,6.661048230224195,216.3,3.0795414841535806,1.7530908887070629,0
smt_37984,6.660537727230533,216.3,3.079305467975281,1.7530068349061352,0
smt_37985,6.660035500676899,216.3,3.0790732781677757,1.7529245255660408,0
smt_37947,6.659541439161759,216.3,3.078844863227813,1.7528432992572878,0
smt_37948,6.659089499449514,216.3,3.0786359220755957,1.7527702532122997,0
sbt_22669,6.657774178707268,216.3,3.078027821871136,1.4471833778220404,0
rbt_3405987,1.9060609257568268,61.95,3.0767730843532313,1.4485653840989183,0
rbt_1132012,2.7675933139546074,90.3,3.06488739086889,1.4405174753037435,0
rbt_1607268,2.3467812149982965,76.65,3.061684559684666,1.4388635730459638,0
sbt_35588,6.605060882577665,216.3,3.0536573659628594,1.4351281787225434,0
rbt_605823,2.7547010989828484,90.3,3.0506102978769087,1.4346755322192433,0
smt_29426,6.58285021910884,216.3,3.043388913133999,1.6325166673120537,0
sbt_21281,4.945734027111629,163.8,3.0193736429252924,1.41866251136321,0
rbt_605989,2.691936257979789,90.3,2.981103275725127,1.4011411903884243,0
rbt_1121173,2.686706715590925,90.3,2.9753119773985883,1.3995907056829218,0
rbt_605807,2.6796682710738278,90.3,2.9675174651980374,1.3962823047479134,0
rbt_606130,2.257698129777708,76.65,2.9454639657895734,1.3840549232793895,0
sbt_3491,4.8166664651511635,163.8,2.9405778175526027,1.3823202796753848,0
rbt_637399,1.8109494343777195,61.95,2.923243639027796,1.3737093260138862,0
sbt_21191,4.778184959821114,163.8,2.9170848350556247,1.3716210868759935,0
sbt_26310,4.7147240487486926,163.8,2.8783419101029866,1.3535831692335714,0
rbt_637705,2.5841075436067857,90.3,2.8616916319012025,2.1678434256676824,0
smt_37960,6.172920564878809,216.3,2.853869886675362,1.6665893225721626,0
smt_37962,6.172486252388649,216.3,2.8536690949554546,1.666520531515748,0
rbt_1105833,2.5761613294467702,90.3,2.8528918377040644,1.3411063287399687,0
smt_37981,6.152312188523828,216.3,2.8443422045879925,1.64145953438785,0
smt_37951,6.151906376642225,216.3,2.844154589293678,1.6413918545396349,0
smt_37952,6.151499852614585,216.3,2.8439666447594014,1.6413259857471527,0
smt_37953,6.150999405456173,216.3,2.843735277603409,1.6412429347441957,0
smt_37954,6.1505172819682725,216.3,2.843512381862354,1.643120745626694,0
smt_37955,6.149994069990661,216.3,2.843270490055784,1.6430331411635264,0
smt_37956,6.149573364672071,216.3,2.843075989215012,1.642966015040743,0
smt_37957,6.149075743052573,216.3,2.8428459283645733,1.6428852452794975,0
smt_37958,6.148580930918909,216.3,2.842617166398016,1.6428055915333137,0
smt_37959,6.148076657645555,216.3,2.842384030349309,1.6427244913096803,0
rbt_1607276,2.5661896903884407,90.3,2.8418490480492147,1.335392590975287,0
smt_25183,6.063110349889829,216.3,2.8031023346693615,1.5149730421902146,0
smt_25117,6.062466661242014,216.3,2.8028047439861368,1.514675476046626,0
smt_25116,6.061804952725744,216.3,2.802498822341999,1.5143698659609857,0
smt_25115,6.061287211694073,216.3,2.80225945986781,1.5141309502552482,0
smt_25114,6.060832803369327,216.3,2.8020493774245616,1.5139214071855955,0
smt_25113,6.060302493756612,216.3,2.8018042042332922,1.5136770378814546,0
smt_25112,6.059742298433303,216.3,2.8015452142548787,1.5134191017173417,0
smt_25111,6.059375275958238,216.3,2.8013755321119915,1.5132502242520551,0
smt_25110,6.05911017485902,216.3,2.8012529703462876,1.513128300044526,0
smt_25109,6.058410939489231,216.3,2.800929699255308,1.5128069378237796,0
smt_25108,6.057878553809124,216.3,2.800683566254796,1.5125624796869854,0
smt_25107,6.057161325644934,216.3,2.800351976719803,1.5122334501694026,0
smt_25106,6.0565350822525845,216.3,2.800062451341925,1.5119464459876006,0
smt_25105,6.055894430208088,216.3,2.79976626454373,1.5116531150522758,0
smt_29427,6.055253439867105,216.3,2.799469921344015,1.511359910110128,0
smt_37979,6.05481480831008,216.3,2.7992671328294403,1.6311256366322817,0
smt_37980,6.054383528777021,216.3,2.79906774330884,1.6310367361401348,0
smt_6407,6.053984606809594,216.3,2.798883313365508,1.510780346082444,0
smt_22794,6.053353037341702,216.3,2.7985913256318544,1.5104922781546006,0
smt_6477,6.052655987115218,216.3,2.7982690647781863,1.510174664032096,0
smt_6641,6.0517503683178555,216.3,2.797850378325407,1.5097625186605794,0
smt_6157,6.051114448112281,216.3,2.797556379155007,1.5094734542385748,0
smt_6694,6.050396203086818,216.3,2.797224319503845,1.509147308352013,0
rbt_1607319,2.5254008391076193,90.3,2.7966786701081054,1.9866649995969696,0
rbt_622709,2.5224788363281476,90.3,2.7934427866313927,1.313389291567335,0
rbt_1607328,2.519843936433099,90.3,2.790524846548282,1.3122376193079757,0
rbt_607366,2.518833484225606,90.3,2.7894058518555993,1.3108813868364158,0
smt_6074,7.935695290059266,286.65,2.768426753901715,1.628025661658434,0
smt_6082,7.935207721479122,286.65,2.7682566619498075,1.6279309368440549,0
smt_6649,7.934727157270067,286.65,2.7680890135252283,1.6278377523272909,0
smt_29408,7.9342572440631605,286.65,2.7679250807825433,1.6277469079590912,0
smt_6422,7.933786280765961,286.65,2.767760781707993,1.6276560696624516,0
smt_22683,7.9333128459111615,286.65,2.7675956204120573,1.6275649269150325,0
smt_22793,7.912820831910847,286.65,2.7604468278077263,1.613310431563538,0
smt_22790,7.912329119603484,286.65,2.7602752902855348,1.613211478020581,0
smt_6370,7.911854396376476,286.65,2.7601096795313014,1.6131162024772268,0
smt_29449,7.911768872418838,286.65,2.760079843857959,1.6137810850188528,0
smt_29409,7.911377152938595,286.65,2.7599431895826254,1.6130206929321131,0
smt_6401,7.911294474757324,286.65,2.7599143466796874,1.6136876504583506,0
smt_5650,7.910877107517771,286.65,2.7597687449913733,1.612920728546947,0
smt_21348,7.910817336478795,286.65,2.759747893416639,1.6135963592144922,0
smt_6094,7.910383389627471,286.65,2.759596507806549,1.6128218191612769,0
smt_29477,7.910004236945099,286.65,2.759464237552799,1.6127466748091457,0
smt_29450,7.909540828482174,286.65,2.759302574038784,1.6126547963886022,0
smt_6231,7.909031289668003,286.65,2.759124817606141,1.612553644130099,0
smt_6340,7.908553735823729,286.65,2.758958219369869,1.6124592423575803,0
sbt_21953,4.492645576511707,163.8,2.7427628672232642,1.2909430620145483,0
sbt_21849,4.492645504207873,163.8,2.7427628230817294,1.2909430410171743,0
sbt_21968,4.492645416589436,163.8,2.7427627695906205,1.290943015621125,0
smt_6581,7.83873754333535,286.65,2.734602317577307,1.58438807295286,0
smt_6701,7.83825732947026,286.65,2.7344347913728453,1.584295485964138,0
smt_21959,7.837729916994085,286.65,2.7342507995793075,1.5841932406844643,0
smt_19219,7.827017584831743,286.65,2.730513722250739,1.572946611524431,0
smt_5952,7.826511764872351,286.65,2.7303372631684466,1.5728416865552532,0
smt_29478,7.825984218442376,286.65,2.7301532246441225,1.572732413248693,0
smt_22841,7.825519343231685,286.65,2.7299910494441604,1.5726364100681378,0
smt_6660,7.825017130766738,286.65,2.729815848863331,1.572532846576862,0
smt_22845,7.781818892608686,286.65,2.7147458198530217,1.5475392476365915,0
smt_18913,7.781233315907389,286.65,2.714541537033801,1.5474172359831586,0
smt_5786,7.780665706378667,286.65,2.7143435221973373,1.5472992526121194,0
smt_29479,7.780177003900115,286.65,2.714173034676475,1.5471979349656058,0
smt_19224,7.7796747124376555,286.65,2.7139978065367716,1.5470940302975078,0
rbt_1633892,2.43484060759647,90.3,2.696390484602957,1.2674058079012358,0
sbt_21137,4.413908554528118,163.8,2.694693867233283,1.267448631357349,0
rbt_1134165,2.427970511204106,90.3,2.688782404434226,1.2653583526388656,0
rbt_1131858,2.4266833464025197,90.3,2.6873569727602655,1.264305545344139,0
rbt_1607353,2.406190787329767,90.3,2.6646631088923227,1.2524128718076402,0
sbt_34390,4.348380868803096,163.8,2.654689175093465,2.0110635286320155,0
smt_37973,5.638237662861839,216.3,2.6066748325759774,1.5462871798551283,0
smt_37991,5.638049656244523,216.3,2.6065879131967282,1.5462575030123145,0
smt_37974,5.637784639091734,216.3,2.6064653902412083,1.5462174227658816,0
smt_37990,5.63733277749372,216.3,2.606256485202829,1.5461423113491488,0
smt_37975,5.6369148192590774,216.3,2.6060632543962443,1.546074529974246,0
smt_37976,5.636462462543154,216.3,2.6058541204545325,1.546000624006055,0
smt_37977,5.636016295357457,216.3,2.6056478480617,1.54592775241741,0
smt_37978,5.635591632708019,216.3,2.605451517664364,1.5458602226835472,0
smt_37970,5.588573259443201,216.3,2.5837139433394363,1.534845930519791,0
smt_37971,5.587978366647909,216.3,2.583438911996259,1.5347415557533104,0
smt_37972,5.587670792890038,216.3,2.583296714234877,1.5346937427355496,0
smt_37989,5.587231718943735,216.3,2.583093721194514,1.5346361438394778,0
sbt_20633,4.16393761423241,163.8,2.5420864555753413,1.6777883876861168,0
smt_37964,5.471722345627077,216.3,2.529691329462356,1.5078462420191097,0
smt_37965,5.4701682613589195,216.3,2.5289728439014882,1.5075894361356064,0
smt_37994,5.469965295821483,216.3,2.528879008701564,1.5075519026304331,0
smt_37995,5.469960488330904,216.3,2.52887678609843,1.5075511715128902,0
smt_37996,5.46995470575028,216.3,2.5288741126908367,1.5075578692568012,0
smt_37966,5.469603028993964,216.3,2.5287115251936956,1.5075024733057585,0
smt_37967,5.469173020413839,216.3,2.528512723261137,1.507433186567189,0
smt_37968,5.468732013704077,216.3,2.5283088366639284,1.5073620588888883,0
smt_37969,5.468299089960751,216.3,2.5281086869906386,1.5072903947117149,0
sbt_4619,5.444055461587297,216.3,2.5169003520976867,1.1831132286229245,0
rbt_606110,1.51315186787229,61.95,2.442537316985133,1.1476126932155277,0
rbt_1607284,2.1971936005337533,90.3,2.433215504467058,1.143951661931445,0
rbt_1607302,1.4894410978272288,61.95,2.40426327332886,1.129580199853417,0
rbt_607382,2.1480694706277,90.3,2.3788144746707642,1.1184522327880504,0
rbt_1607273,1.822417982924193,76.65,2.377583800292489,1.1172472462267071,0
sbt_26614,3.851470008411479,162.75,2.3664946288242574,1.792444598240406,0
sbt_26512,3.8514684282688543,162.75,2.3664936579224913,1.7924436141744178,0
sbt_16246,3.8514678518839807,162.75,2.366493303768959,1.7924432558703665,0
sbt_5828,3.8514651208535033,163.8,2.3513218076028712,1.7809515520276094,0
sbt_3790,3.824324592531567,163.8,2.33475249849302,1.0968578680337793,0
rbt_1137150,1.4376009631380302,61.95,2.320582668503681,1.0909756260781978,0
rbt_3405843,2.089455224991491,90.3,2.313903903645062,1.0881544094150153,0
rbt_1607288,1.7564386734885349,76.65,2.291505118706503,1.0770754337939759,0
rbt_605817,1.7472754157638786,76.65,2.27955044457127,1.0715266645207822,0
smt_13591,3.710656615869437,163.8,2.2653581293464202,1.1231015275056317,0
sbt_30492,2.8202883703047394,124.95,2.257133549663657,1.060782069247477,0
rbt_607387,2.0278955553148674,90.3,2.2457315119765973,1.0554059475007669,0
sbt_21147,2.8732352011232853,128.1,2.2429626862789114,1.0540204056697606,0
sbt_17923,2.873229734654534,128.1,2.2429584189340623,1.054016096276975,0
rbt_626695,2.01879381428529,90.3,2.2356520645462794,1.6936248665412366,0
rbt_623432,2.018782184767482,90.3,2.235639185789017,1.0512431827471889,0
sbt_3473,3.6374703662125762,163.8,2.2206778792506565,1.0439109381903013,0
sbt_26790,4.790805296443845,216.3,2.2148891800480097,1.0415017929878116,0
smt_18691,6.337812680923597,286.65,2.2109934348242097,1.1613762191190278,0
smt_18692,6.33710525437217,286.65,2.2107466437719063,1.1611873956124394,0
smt_22142,6.336474655569124,286.65,2.210526654655198,1.161019474612024,0
smt_29410,6.335902377520785,286.65,2.210327011170691,1.1608674076145589,0
smt_4821,6.335356406307988,286.65,2.2101365450228463,1.1607226189930435,0
smt_18693,6.334691526785057,286.65,2.209904596820184,1.1605466773524413,0
smt_5832,6.334078837029527,286.65,2.2096908554088706,1.1603849175346668,0
smt_18694,6.333437282640446,286.65,2.2094670443538975,1.1602159197519073,0
smt_5643,6.33287187216556,286.65,2.2092697966738397,1.1600673052296273,0
smt_29483,6.332309932898509,286.65,2.20907375995064,1.159919906051412,0
smt_6014,6.331753381047252,286.65,2.2088796026678015,1.1597742184798485,0
smt_18695,6.33111135777675,286.65,2.208655628040032,1.15960652710351,0
smt_29482,6.330540541007559,286.65,2.208456494333703,1.1594577679461002,0
smt_6195,6.329942277461051,286.65,2.208247785613484,1.1593021939172967,0
smt_6105,6.329341882606819,286.65,2.208038333370598,1.1591464144046872,0
smt_19334,6.284727148226556,286.65,2.1924741490411845,1.1376646018480767,0
smt_19331,6.284105594802279,286.65,2.192257315472625,1.1374711961419597,0
smt_22269,6.283495146996587,286.65,2.1920443561823086,1.1372815370186204,0
sbt_34896,4.684162928476291,216.3,2.165586189771748,1.0180192117126559,0
sbt_34381,3.4983648245413113,163.8,2.135753861136332,1.0040475251861496,0
smt_29480,6.081515358755603,286.65,2.121582193879506,1.165408958142549,0
smt_19271,6.080325115088601,286.65,2.121166968459306,1.1651363841941982,0
smt_5537,6.079852501346617,286.65,2.1210020936147282,1.165028557335248,0
smt_19274,6.057138579858082,286.65,2.1130781719372345,1.1513149906671287,0
smt_4942,6.056583996049167,286.65,2.112884701220711,1.1511868846977842,0
smt_18740,6.056042809783858,286.65,2.1126959043376448,1.1510621808640982,0
smt_5191,6.055504064207921,286.65,2.112507958907351,1.1509383417577361,0
smt_5198,6.054970350465951,286.65,2.1123217688700335,1.150815957412359,0
smt_5549,6.054382067613249,286.65,2.112116541989621,1.1506814047268399,0
smt_19273,6.053780314667916,286.65,2.1119066159664808,1.150544146107167,0
smt_5414,6.05327511111671,286.65,2.1117303719228016,1.1504292038368107,0
smt_5522,6.0527133204047106,286.65,2.1115343870241445,1.150301702534548,0
smt_40861,6.024034724159449,286.65,2.101529643872126,1.1328609214148937,0
smt_40860,6.023672737023348,286.65,2.101403361947793,1.1327770165652447,0
smt_40859,6.023292177561434,286.65,2.101270600928461,1.1326889557791107,0
smt_40858,6.022906306646657,286.65,2.1011359869690067,1.1325998220290974,0
smt_40857,6.022432676766499,286.65,2.1009707576370134,1.1324906317716106,0
smt_40856,6.0219552606957185,286.65,2.1008042074640567,1.1323808092729402,0
smt_40855,6.021489285986152,286.65,2.100641648695675,1.1322738521554514,0
smt_40854,6.021048584697919,286.65,2.1004879067496667,1.1321729088360946,0
smt_40853,6.020572740050199,286.65,2.1003219047794177,1.132064148467374,0
smt_40852,6.020094046130662,286.65,2.1001549088193485,1.131954981118418,0
smt_22899,6.018570834119764,286.65,2.099623524897877,1.1240288695663871,0
smt_5757,6.018293746565228,286.65,2.0995268608286164,1.1242288110498304,0
smt_5956,6.018002965942583,286.65,2.099425419829961,1.123881767836997,0
smt_6028,6.017702311198562,286.65,2.0993205341700896,1.1240763603218298,0
smt_22898,6.017101491174955,286.65,2.0991109336036824,1.1239218471145003,0
smt_16985,6.016612797553289,286.65,2.098940449172611,1.123796459372212,0
smt_6106,6.01604997843084,286.65,2.0987441055052645,1.1236523460155048,0
smt_6021,6.015492429604529,286.65,2.098549600420209,1.1235099078007693,0
smt_6212,6.014950267941076,286.65,2.098360463262193,1.1233717156075742,0
smt_6044,6.014386909655782,286.65,2.0981639315038487,1.1232284317783254,0
smt_6029,6.013837600839447,286.65,2.0979723010080056,1.1230890274702114,0
smt_19276,6.013288673303461,286.65,2.0977808035246683,1.1229500227403055,0
smt_22896,6.012661881116325,286.65,2.0975621423744375,1.122791671557411,0
smt_6693,6.012238821080957,286.65,2.0974145547116545,1.1226850156211883,0
smt_41231,6.012221669117145,286.65,2.0974085711205808,1.1226806956096265,0
smt_41232,6.0116242133498226,286.65,2.0972001442001824,1.1225303918036822,0
rbt_605808,1.8935307483780988,90.3,2.0969332761662223,0.9852565923407951,0
smt_40865,6.003377315368344,286.65,2.0943231520559373,1.120492993479654,0
smt_40864,6.002912832593201,286.65,2.094161113760056,1.120380343052259,0
smt_40863,6.002441668181172,286.65,2.0939967445250907,1.120266305752562,0
smt_40862,6.0019706862746895,286.65,2.093832438958552,1.1201525483566133,0
rbt_1607326,1.889694961529545,90.3,2.092685450198832,0.9839559010763098,0
smt_40375,3.414788477701896,163.8,2.084730450367458,1.0378505722965308,0
smt_40374,3.414237511389511,163.8,2.084394085097381,1.0375218647951818,0
smt_40358,3.413689362332801,163.8,2.0840594397636147,1.0371955165986753,0
smt_40357,3.413112198264375,163.8,2.0837070807474816,1.0368526293900384,0
smt_40356,3.4126260589936557,163.8,2.083410292425919,1.0365644073893223,0
smt_40355,3.4120708326102145,163.8,2.083071326379862,1.0362358864880052,0
smt_40354,3.4115066134061265,163.8,2.08272687021131,1.0359027709320427,0
...